@<TRIPOS>MOLECULE
generated by VMD
  440    0    1    0    0
SMALL
NO_CHARGES
****
Energy = 0

@<TRIPOS>ATOM
      1  C1        25.0400   41.5900   41.8800   C1    1  JA2        0.000000
      2 4C56       26.0600   40.4600   41.9400 4C56    1  JA2        0.000000
      3 1C16       23.6400   41.0000   41.7000 1C16    1  JA2        0.000000
      4 3C56       26.2100   39.8100   43.1800 3C56    1  JA2        0.000000
      5 6C16       23.1200   40.9400   40.4200 6C16    1  JA2        0.000000
      6 2C56       27.1300   38.7900   43.3500 2C56    1  JA2        0.000000
      7 5C16       21.8500   40.4100   40.1600 5C16    1  JA2        0.000000
      8 1C56       27.9000   38.4000   42.2400 1C56    1  JA2        0.000000
      9 4C16       21.1300   39.9200   41.2600 4C16    1  JA2        0.000000
     10 6C56       27.7700   39.0800   41.0100 6C56    1  JA2        0.000000
     11 3C16       21.6400   40.0000   42.5400 3C16    1  JA2        0.000000
     12 5C56       26.8600   40.1200   40.8500 5C56    1  JA2        0.000000
     13 2C16       22.9100   40.5400   42.8000 2C16    1  JA2        0.000000
     14 1C51       26.5100   38.5600   45.8300 1C51    1  JA2        0.000000
     15 1C12       22.0400   40.8600   37.6900 1C12    1  JA2        0.000000
     16 2C51       27.0400   38.0300   47.2100 2C51    1  JA2        0.000000
     17 2C12       21.4400   40.1700   36.5000 2C12    1  JA2        0.000000
     18 1N51       29.1700   38.9000   49.9300 1N51    1  JA2        0.000000
     19 5C12       19.8300   40.0600   33.9700 5C12    1  JA2        0.000000
     20 5C51       29.7600   38.3900   51.1700 5C51    1  JA2        0.000000
     21 1N12       19.1700   39.3100   32.9900 1N12    1  JA2        0.000000
     22  C5        28.8900   37.2600   42.3100   C5    1  JA2        0.000000
     23  C2        19.7400   39.3100   41.0800   C2    1  JA2        0.000000
     24 4C46       28.1000   35.9400   42.2200 4C46    1  JA2        0.000000
     25 1C26       19.8200   37.7900   41.2600 1C26    1  JA2        0.000000
     26 3C46       27.7100   35.3300   43.4100 3C46    1  JA2        0.000000
     27 6C26       20.0000   37.0000   40.1200 6C26    1  JA2        0.000000
     28 2C46       26.9900   34.1300   43.4200 2C46    1  JA2        0.000000
     29 5C26       20.0900   35.6000   40.1900 5C26    1  JA2        0.000000
     30 1C46       26.6600   33.5500   42.1900 1C46    1  JA2        0.000000
     31 4C26       19.9900   35.0100   41.4600 4C26    1  JA2        0.000000
     32 6C46       27.0800   34.1500   40.9900 6C46    1  JA2        0.000000
     33 3C26       19.8000   35.8000   42.6100 3C26    1  JA2        0.000000
     34 5C46       27.8000   35.3500   40.9800 5C46    1  JA2        0.000000
     35 2C26       19.7100   37.2000   42.5200 2C26    1  JA2        0.000000
     36 1C41       26.9000   34.1900   45.9700 1C41    1  JA2        0.000000
     37 1C22       20.4300   35.5100   37.7800 1C22    1  JA2        0.000000
     38 2C41       26.2100   33.5800   47.2400 2C41    1  JA2        0.000000
     39 2C22       20.6900   34.6700   36.5900 2C22    1  JA2        0.000000
     40 1N41       26.6400   30.4300   49.3200 1N41    1  JA2        0.000000
     41 5C22       19.8800   33.7600   33.8700 5C22    1  JA2        0.000000
     42 5C41       26.0800   29.7100   50.4400 5C41    1  JA2        0.000000
     43 1N22       20.1200   32.9600   32.7500 1N22    1  JA2        0.000000
     44  C4        25.8200   32.2400   42.1000   C4    1  JA2        0.000000
     45  C3        20.1000   33.4900   41.6200   C3    1  JA2        0.000000
     46 4C36       24.3000   32.5600   41.9500 4C36    1  JA2        0.000000
     47 1C36       21.5800   33.1400   41.7700 1C36    1  JA2        0.000000
     48 3C36       23.4500   32.4000   43.0500 3C36    1  JA2        0.000000
     49 6C36       22.4100   33.2600   40.6500 6C36    1  JA2        0.000000
     50 5C36       23.7700   32.9700   40.7100 5C36    1  JA2        0.000000
     51 2C36       22.0800   32.6700   42.9900 2C36    1  JA2        0.000000
     52 1C32       24.0000   33.2500   38.2200 1C32    1  JA2        0.000000
     53 1C31       21.6800   31.7300   45.2700 1C31    1  JA2        0.000000
     54 2C32       25.0700   33.3800   37.0500 2C32    1  JA2        0.000000
     55 2C31       20.5500   31.3700   46.2800 2C31    1  JA2        0.000000
     56 5C32       24.8900   33.8000   33.0500 5C32    1  JA2        0.000000
     57 1N31       21.2400   33.0000   49.0200 1N31    1  JA2        0.000000
     58 1N32       25.9000   34.0800   32.0400 1N32    1  JA2        0.000000
     59 5C31       22.3400   33.6800   49.7000 5C31    1  JA2        0.000000
     60 1C42       28.1900   35.4200   38.4600 1C42    1  JA2        0.000000
     61 1C21       19.4300   37.4200   45.0300 1C21    1  JA2        0.000000
     62 2C42       28.5000   36.5900   37.4400 2C42    1  JA2        0.000000
     63 2C21       19.2800   38.4600   46.2000 2C21    1  JA2        0.000000
     64 5C42       28.9600   37.2200   33.5400 5C42    1  JA2        0.000000
     65 1N21       18.1700   38.5200   49.6600 1N21    1  JA2        0.000000
     66 1N42       28.9700   38.4600   32.7900 1N42    1  JA2        0.000000
     67 5C21       18.1300   39.4000   50.8200 5C21    1  JA2        0.000000
     68 1C52       27.8400   40.8200   38.6000 1C52    1  JA2        0.000000
     69 1C11       22.6000   40.1500   45.2300 1C11    1  JA2        0.000000
     70 2C52       27.4300   41.5700   37.2900 2C52    1  JA2        0.000000
     71 2C11       23.1100   40.5300   46.6300 2C11    1  JA2        0.000000
     72 5C52       24.9900   40.9200   34.2900 5C52    1  JA2        0.000000
     73 1N11       22.6200   42.5100   49.1300 1N11    1  JA2        0.000000
     74 1N52       24.6400   41.8100   33.1400 1N52    1  JA2        0.000000
     75 5C11       23.0100   42.9300   50.4400 5C11    1  JA2        0.000000
     76 3C52       26.3500   40.7800   36.4900 3C52    1  JA2        0.000000
     77 3C11       23.1600   42.0600   46.7600 3C11    1  JA2        0.000000
     78 4C52       25.9800   41.6400   35.2500 4C52    1  JA2        0.000000
     79 4C11       23.5600   42.4100   48.1800 4C11    1  JA2        0.000000
     80 1O10       24.7500   42.6200   48.4600 1O10    1  JA2        0.000000
     81 3C42       28.6000   36.1700   35.9400 3C42    1  JA2        0.000000
     82 3C21       19.2400   37.7000   47.5600 3C21    1  JA2        0.000000
     83 4C42       28.7900   37.5000   35.0800 4C42    1  JA2        0.000000
     84 4C21       19.1500   38.6500   48.7700 4C21    1  JA2        0.000000
     85 1O20       19.9900   39.5500   48.9900 1O20    1  JA2        0.000000
     86 3C32       24.3900   33.4900   35.6200 3C32    1  JA2        0.000000
     87 3C31       19.9300   32.6300   46.9200 3C31    1  JA2        0.000000
     88 4C32       25.5100   33.6800   34.5100 4C32    1  JA2        0.000000
     89 4C31       21.0200   33.3200   47.7500 4C31    1  JA2        0.000000
     90 1O30       21.7500   34.1800   47.2700 1O30    1  JA2        0.000000
     91 3C51       28.4500   38.6000   47.5300 3C51    1  JA2        0.000000
     92 3C12       19.9300   40.4400   36.4700 3C12    1  JA2        0.000000
     93 4C51       28.9600   38.0700   48.8900 4C51    1  JA2        0.000000
     94 4C12       19.2700   39.6600   35.3300 4C12    1  JA2        0.000000
     95 1O50       29.2100   36.8600   49.0200 1O50    1  JA2        0.000000
     96 3C41       26.6700   32.1300   47.5000 3C41    1  JA2        0.000000
     97 3C22       19.5100   33.7200   36.3700 3C22    1  JA2        0.000000
     98 4C41       26.0100   31.4600   48.7500 4C41    1  JA2        0.000000
     99 4C22       19.7600   32.8600   35.1200 4C22    1  JA2        0.000000
    100 1O40       24.8900   31.8200   49.2000 1O40    1  JA2        0.000000
    101  O42       28.2500   36.0300   39.7500  O42    1  JA2        0.000000
    102  O21       19.5000   38.0900   43.7100  O21    1  JA2        0.000000
    103  O52       26.7300   40.8800   39.5300  O52    1  JA2        0.000000
    104  O11       23.4500   40.6500   44.1800  O11    1  JA2        0.000000
    105  O32       24.6600   33.0700   39.4900  O32    1  JA2        0.000000
    106  O31       21.1100   32.4600   44.1500  O31    1  JA2        0.000000
    107  O51       27.3500   38.1200   44.7000  O51    1  JA2        0.000000
    108  O12       21.2800   40.3100   38.7900  O12    1  JA2        0.000000
    109  O41       26.5700   33.5000   44.7100  O41    1  JA2        0.000000
    110  O22       20.2900   34.7300   38.9700  O22    1  JA2        0.000000
    111 6C31       22.6600   33.1600   51.1400 6C31    1  JA2        0.000000
    112 6C41       27.1700   28.8500   51.1600 6C41    1  JA2        0.000000
    113 6C51       28.7700   37.5700   52.0700 6C51    1  JA2        0.000000
    114 6C11       22.0200   43.9900   50.9500 6C11    1  JA2        0.000000
    115 6C21       16.9700   38.9900   51.8000 6C21    1  JA2        0.000000
    116 2N31       21.5600   33.4000   52.0700 2N31    1  JA2        0.000000
    117 2N41       26.5700   28.0900   52.2800 2N41    1  JA2        0.000000
    118 2N51       29.5000   37.0800   53.2800 2N51    1  JA2        0.000000
    119 2N11       22.4300   44.4400   52.2800 2N11    1  JA2        0.000000
    120 2N21       16.9500   39.8700   53.0000 2N21    1  JA2        0.000000
    121 6C52       25.3700   41.9600   31.9600 6C52    1  JA2        0.000000
    122 7C52       24.6900   42.8000   31.2300 7C52    1  JA2        0.000000
    123 3N52       23.5400   43.1600   31.9600 3N52    1  JA2        0.000000
    124 2N52       23.5400   42.5800   33.0500 2N52    1  JA2        0.000000
    125 2N12       18.3500   38.2500   33.2100 2N12    1  JA2        0.000000
    126 3N12       17.7900   37.9600   32.1600 3N12    1  JA2        0.000000
    127 7C12       18.2500   38.8300   31.1700 7C12    1  JA2        0.000000
    128 6C12       19.1200   39.6500   31.7100 6C12    1  JA2        0.000000
    129 2N22       21.3000   32.3800   32.4200 2N22    1  JA2        0.000000
    130 3N22       21.1700   31.7800   31.3700 3N22    1  JA2        0.000000
    131 7C22       19.8300   31.9300   30.9400 7C22    1  JA2        0.000000
    132 6C22       19.2100   32.6800   31.8200 6C22    1  JA2        0.000000
    133 6C42       28.6600   38.5500   31.4900 6C42    1  JA2        0.000000
    134 7C42       28.4900   39.8300   31.2300 7C42    1  JA2        0.000000
    135 3N42       28.7300   40.5300   32.4300 3N42    1  JA2        0.000000
    136 2N42       28.9900   39.7200   33.3200 2N42    1  JA2        0.000000
    137 6C32       25.6400   34.2000   30.7200 6C32    1  JA2        0.000000
    138 7C32       26.7800   34.5800   30.1900 7C32    1  JA2        0.000000
    139 3N32       27.7400   34.6800   31.2100 3N32    1  JA2        0.000000
    140 2N32       27.1900   34.4000   32.2800 2N32    1  JA2        0.000000
    141 8C32       27.0400   34.8200   28.7600 8C32    1  JA2        0.000000
    142 4N32       27.5000   33.5400   28.2800 4N32    1  JA2        0.000000
    143 8C22       19.2300   31.3700   29.7100 8C22    1  JA2        0.000000
    144 8C12       17.7600   38.8800   29.7900 8C12    1  JA2        0.000000
    145 8C52       25.0600   43.3400   29.8600 8C52    1  JA2        0.000000
    146 4N52       25.4900   44.7200   30.1100 4N52    1  JA2        0.000000
    147 4N22       18.0400   30.5900   30.0000 4N22    1  JA2        0.000000
    148 4N12       16.7200   39.8700   29.8800 4N12    1  JA2        0.000000
    149 8C42       28.1300   40.4100   29.8700 8C42    1  JA2        0.000000
    150 4N42       28.7800   39.5600   28.8900 4N42    1  JA2        0.000000
    151  H1        21.8200   33.0300   53.0000   H1    1  JA2        0.000000
    152  H2        21.4200   34.4000   52.1400   H2    1  JA2        0.000000
    153  H3        25.0500   42.1000   42.8500   H3    1  JA2        0.000000
    154  H4        25.2700   42.2300   41.0200   H4    1  JA2        0.000000
    155  H5        25.6100   40.1300   43.9900   H5    1  JA2        0.000000
    156  H6        23.7100   41.3100   39.6200   H6    1  JA2        0.000000
    157  H7        28.3900   38.7700   40.2100   H7    1  JA2        0.000000
    158  H8        21.0400   39.6300   43.3400   H8    1  JA2        0.000000
    159  H9        26.5100   39.6600   45.8800   H9    1  JA2        0.000000
    160  H10       25.5000   38.2000   45.6700  H10    1  JA2        0.000000
    161  H11       23.1000   40.5800   37.7600  H11    1  JA2        0.000000
    162  H12       21.9300   41.9500   37.6500  H12    1  JA2        0.000000
    163  H13       26.3400   38.3600   48.0000  H13    1  JA2        0.000000
    164  H14       27.0800   36.9300   47.2000  H14    1  JA2        0.000000
    165  H15       21.9300   40.5200   35.5800  H15    1  JA2        0.000000
    166  H16       21.6000   39.0900   36.6100  H16    1  JA2        0.000000
    167  H17       28.9600   39.8900   49.8100  H17    1  JA2        0.000000
    168  H18       19.6700   41.1300   33.7900  H18    1  JA2        0.000000
    169  H19       20.9100   39.8600   33.9100  H19    1  JA2        0.000000
    170  H20       30.5900   37.7200   50.9000  H20    1  JA2        0.000000
    171  H21       30.1500   39.2400   51.7600  H21    1  JA2        0.000000
    172  H22       29.5800   37.3300   41.4500  H22    1  JA2        0.000000
    173  H23       29.3800   37.2900   43.3000  H23    1  JA2        0.000000
    174  H24       19.1000   39.6900   41.8900  H24    1  JA2        0.000000
    175  H25       19.3700   39.5500   40.0700  H25    1  JA2        0.000000
    176  H26       27.9700   35.8100   44.3100  H26    1  JA2        0.000000
    177  H27       20.0700   37.5000   39.1900  H27    1  JA2        0.000000
    178  H28       26.8200   33.6800   40.0700  H28    1  JA2        0.000000
    179  H29       19.7200   35.3100   43.5400  H29    1  JA2        0.000000
    180  H30       26.5400   35.2200   45.8800  H30    1  JA2        0.000000
    181  H31       27.9900   34.2000   46.1100  H31    1  JA2        0.000000
    182  H32       21.2800   36.1900   37.9200  H32    1  JA2        0.000000
    183  H33       19.5000   36.0900   37.6100  H33    1  JA2        0.000000
    184  H34       26.4800   34.1900   48.1200  H34    1  JA2        0.000000
    185  H35       25.1200   33.6000   47.1100  H35    1  JA2        0.000000
    186  H36       20.8200   35.3300   35.7300  H36    1  JA2        0.000000
    187  H37       21.6100   34.0800   36.7400  H37    1  JA2        0.000000
    188  H38       27.5300   30.1500   48.9300  H38    1  JA2        0.000000
    189  H39       20.7300   34.4500   33.9900  H39    1  JA2        0.000000
    190  H40       18.9400   34.3200   33.7400  H40    1  JA2        0.000000
    191  H41       25.6200   30.4100   51.1300  H41    1  JA2        0.000000
    192  H42       25.3000   29.0300   50.0500  H42    1  JA2        0.000000
    193  H43       26.1300   31.7200   41.1800  H43    1  JA2        0.000000
    194  H44       25.9600   31.6600   43.0200  H44    1  JA2        0.000000
    195  H45       19.5500   33.1600   42.5200  H45    1  JA2        0.000000
    196  H46       19.7400   33.0500   40.6800  H46    1  JA2        0.000000
    197  H47       23.8800   32.0500   43.9700  H47    1  JA2        0.000000
    198  H48       21.9700   33.5800   39.7400  H48    1  JA2        0.000000
    199  H49       23.3600   32.3700   38.0400  H49    1  JA2        0.000000
    200  H50       23.3900   34.1600   38.2500  H50    1  JA2        0.000000
    201  H51       22.0900   30.7800   44.8800  H51    1  JA2        0.000000
    202  H52       22.4800   32.3000   45.7600  H52    1  JA2        0.000000
    203  H53       25.6700   34.2700   37.2300  H53    1  JA2        0.000000
    204  H54       25.7200   32.4900   37.0500  H54    1  JA2        0.000000
    205  H55       19.7600   30.8200   45.7400  H55    1  JA2        0.000000
    206  H56       20.9500   30.7400   47.0800  H56    1  JA2        0.000000
    207  H57       24.3500   32.8800   32.7700  H57    1  JA2        0.000000
    208  H58       24.1600   34.6200   33.0300  H58    1  JA2        0.000000
    209  H59       20.6800   32.3000   49.4500  H59    1  JA2        0.000000
    210  H60       23.2300   33.5400   49.0500  H60    1  JA2        0.000000
    211  H61       22.1200   34.7700   49.7300  H61    1  JA2        0.000000
    212  H62       27.1900   35.0100   38.2600  H62    1  JA2        0.000000
    213  H63       28.9500   34.6200   38.3900  H63    1  JA2        0.000000
    214  H64       20.3500   36.8500   45.2000  H64    1  JA2        0.000000
    215  H65       18.5700   36.7300   45.0500  H65    1  JA2        0.000000
    216  H66       27.7000   37.3300   37.5500  H66    1  JA2        0.000000
    217  H67       29.4600   37.0600   37.7100  H67    1  JA2        0.000000
    218  H68       20.1400   39.1400   46.2000  H68    1  JA2        0.000000
    219  H69       18.3600   39.0400   46.0700  H69    1  JA2        0.000000
    220  H70       28.1300   36.6100   33.1600  H70    1  JA2        0.000000
    221  H71       29.9000   36.6600   33.3700  H71    1  JA2        0.000000
    222  H72       17.4700   37.8100   49.5400  H72    1  JA2        0.000000
    223  H73       19.1000   39.3300   51.3300  H73    1  JA2        0.000000
    224  H74       18.0000   40.4300   50.4700  H74    1  JA2        0.000000
    225  H75       28.6900   41.3400   39.0800  H75    1  JA2        0.000000
    226  H76       28.1400   39.7900   38.3700  H76    1  JA2        0.000000
    227  H77       21.6000   40.6100   45.1200  H77    1  JA2        0.000000
    228  H78       22.5200   39.0600   45.1600  H78    1  JA2        0.000000
    229  H79       27.0600   42.5700   37.5600  H79    1  JA2        0.000000
    230  H80       28.3100   41.6700   36.6400  H80    1  JA2        0.000000
    231  H81       22.4100   40.1200   47.3800  H81    1  JA2        0.000000
    232  H82       24.1100   40.1100   46.8100  H82    1  JA2        0.000000
    233  H83       24.0900   40.6500   34.8400  H83    1  JA2        0.000000
    234  H84       25.5100   40.0200   33.9200  H84    1  JA2        0.000000
    235  H85       21.6500   42.3300   48.9000  H85    1  JA2        0.000000
    236  H86       23.0000   42.0700   51.1200  H86    1  JA2        0.000000
    237  H87       24.0200   43.3500   50.3800  H87    1  JA2        0.000000
    238  H88       26.7900   39.8200   36.1700  H88    1  JA2        0.000000
    239  H89       25.4600   40.5900   37.1000  H89    1  JA2        0.000000
    240  H90       23.9000   42.4300   46.0300  H90    1  JA2        0.000000
    241  H91       22.1500   42.4400   46.5600  H91    1  JA2        0.000000
    242  H92       26.8900   41.8900   34.6900  H92    1  JA2        0.000000
    243  H93       25.5100   42.5600   35.6100  H93    1  JA2        0.000000
    244  H94       29.4500   35.4900   35.8000  H94    1  JA2        0.000000
    245  H95       27.6700   35.6700   35.6200  H95    1  JA2        0.000000
    246  H96       18.3900   36.9900   47.5700  H96    1  JA2        0.000000
    247  H97       20.1900   37.1500   47.6100  H97    1  JA2        0.000000
    248  H98       29.6700   38.0500   35.4400  H98    1  JA2        0.000000
    249  H99       27.8900   38.1200   35.2300  H99    1  JA2        0.000000
    250 0H10       23.8100   32.5800   35.4200 0H10    1  JA2        0.000000
    251 1H10       23.7200   34.3600   35.6000 1H10    1  JA2        0.000000
    252 2H10       19.5700   33.2900   46.1100 2H10    1  JA2        0.000000
    253 3H10       19.1100   32.2900   47.5800 3H10    1  JA2        0.000000
    254 4H10       26.2000   32.8200   34.5300 4H10    1  JA2        0.000000
    255 5H10       26.0600   34.6000   34.7400 5H10    1  JA2        0.000000
    256 6H10       29.1100   38.2400   46.7200 6H10    1  JA2        0.000000
    257 7H10       28.4100   39.7000   47.5400 7H10    1  JA2        0.000000
    258 8H10       19.4900   40.1000   37.4200 8H10    1  JA2        0.000000
    259 9H10       19.7500   41.5200   36.3500 9H10    1  JA2        0.000000
    260 0H11       18.1900   39.8600   35.3400 0H11    1  JA2        0.000000
    261 1H11       19.4500   38.5800   35.4800 1H11    1  JA2        0.000000
    262 2H11       26.3900   31.5400   46.6100 2H11    1  JA2        0.000000
    263 3H11       27.7600   32.0800   47.6000 3H11    1  JA2        0.000000
    264 4H11       19.4100   33.0700   37.2500 4H11    1  JA2        0.000000
    265 5H11       18.5900   34.3100   36.2300 5H11    1  JA2        0.000000
    266 6H11       18.9200   32.1700   34.9800 6H11    1  JA2        0.000000
    267 7H11       20.6900   32.2900   35.2500 7H11    1  JA2        0.000000
    268 8H11       22.8600   32.1000   51.1100 8H11    1  JA2        0.000000
    269 9H11       23.5400   33.7000   51.5200 9H11    1  JA2        0.000000
    270 0H12       27.6200   28.1400   50.4500 0H12    1  JA2        0.000000
    271 1H12       27.9600   29.5100   51.5600 1H12    1  JA2        0.000000
    272 2H12       27.9300   38.2100   52.3800 2H12    1  JA2        0.000000
    273 3H12       28.3900   36.7100   51.5000 3H12    1  JA2        0.000000
    274 4H12       22.0100   44.8500   50.2600 4H12    1  JA2        0.000000
    275 5H12       21.0200   43.5700   51.0000 5H12    1  JA2        0.000000
    276 6H12       16.0100   39.0800   51.2800 6H12    1  JA2        0.000000
    277 7H12       17.1100   37.9600   52.1300 7H12    1  JA2        0.000000
    278 8H12       26.1600   28.7400   52.9600 8H12    1  JA2        0.000000
    279 9H12       25.8300   27.4800   51.9000 9H12    1  JA2        0.000000
    280 0H13       29.8700   37.8800   53.8000 0H13    1  JA2        0.000000
    281 1H13       30.2800   36.4700   52.9700 1H13    1  JA2        0.000000
    282 2H13       23.3600   44.8600   52.2200 2H13    1  JA2        0.000000
    283 3H13       22.4600   43.6300   52.9000 3H13    1  JA2        0.000000
    284 4H13       17.8400   39.7700   53.5100 4H13    1  JA2        0.000000
    285 5H13       16.1700   39.5800   53.6300 5H13    1  JA2        0.000000
    286 6H13       26.2900   41.5200   31.7100 6H13    1  JA2        0.000000
    287 7H13       19.6100   40.4600   31.2400 7H13    1  JA2        0.000000
    288 8H13       18.2000   32.9900   31.8000 8H13    1  JA2        0.000000
    289 9H13       28.5500   37.7500   30.8100 9H13    1  JA2        0.000000
    290 0H14       24.7200   34.0200   30.2200 0H14    1  JA2        0.000000
    291 1H14       26.1000   35.0700   28.2400 1H14    1  JA2        0.000000
    292 2H14       27.8200   35.5600   28.6000 2H14    1  JA2        0.000000
    293 3H14       27.2700   32.7400   28.8300 3H14    1  JA2        0.000000
    294 4H14       18.9100   32.2000   29.0600 4H14    1  JA2        0.000000
    295 5H14       19.9600   30.7500   29.1600 5H14    1  JA2        0.000000
    296 6H14       18.5400   39.2500   29.1000 6H14    1  JA2        0.000000
    297 7H14       17.3300   37.9300   29.4600 7H14    1  JA2        0.000000
    298 8H14       25.8900   42.7600   29.4400 8H14    1  JA2        0.000000
    299 9H14       24.1900   43.3700   29.1800 9H14    1  JA2        0.000000
    300 0H15       26.0500   44.9000   30.9000 0H15    1  JA2        0.000000
    301 1H15       17.7100   30.5000   30.9400 1H15    1  JA2        0.000000
    302 2H15       16.6400   40.4200   30.7000 2H15    1  JA2        0.000000
    303 3H15       28.3900   41.4700   29.7700 3H15    1  JA2        0.000000
    304 4H15       27.0400   40.3000   29.7400 4H15    1  JA2        0.000000
    305 5H15       28.9300   38.5900   29.1100 5H15    1  JA2        0.000000
    306 1H16       27.2900   27.5100   52.7500 1H16    1  JA2        0.000000
    307 2H16       21.7600   45.1300   52.6300 2H16    1  JA2        0.000000
    308 3H16       20.7100   32.9400   51.7400 3H16    1  JA2        0.000000
    309 4H16       28.8600   36.5200   53.9000 4H16    1  JA2        0.000000
    310 5H16       16.8200   40.8400   52.7100 5H16    1  JA2        0.000000
    311  N         29.7100   39.4500   25.4100    N    2  TRP        0.000000
    312  H1        30.2400   38.8300   24.7900   H1    2  TRP        0.000000
    313  H2        29.9700   40.4200   25.2600   H2    2  TRP        0.000000
    314  H3        28.7100   39.3300   25.2600   H3    2  TRP        0.000000
    315  CA        30.0100   39.1200   26.7200   CA    2  TRP        0.000000
    316  HA        29.7600   38.0600   26.9100   HA    2  TRP        0.000000
    317  CB        31.5500   39.3300   26.8900   CB    2  TRP        0.000000
    318  HB1       32.0600   38.6400   26.2000  HB1    2  TRP        0.000000
    319  HB2       31.8500   40.3800   26.7100  HB2    2  TRP        0.000000
    320  CG        31.7500   38.9300   28.2700   CG    2  TRP        0.000000
    321  CD1       31.3200   37.7600   28.7300  CD1    2  TRP        0.000000
    322  HD1       30.8600   37.0200   28.1500  HD1    2  TRP        0.000000
    323  NE1       31.4600   37.7000   30.0500  NE1    2  TRP        0.000000
    324  HE1       31.1700   36.9300   30.6200  HE1    2  TRP        0.000000
    325  CE2       32.1100   38.8900   30.5000  CE2    2  TRP        0.000000
    326  CD2       32.3000   39.6900   29.3800  CD2    2  TRP        0.000000
    327  CE3       32.8800   40.8800   29.4300  CE3    2  TRP        0.000000
    328  HE3       33.0400   41.4800   28.5700  HE3    2  TRP        0.000000
    329  CZ3       33.3300   41.3500   30.7600  CZ3    2  TRP        0.000000
    330  HZ3       33.8000   42.3000   30.8600  HZ3    2  TRP        0.000000
    331  CZ2       32.4800   39.2600   31.7200  CZ2    2  TRP        0.000000
    332  HZ2       32.3200   38.6400   32.5600  HZ2    2  TRP        0.000000
    333  CH2       33.1400   40.5900   31.8500  CH2    2  TRP        0.000000
    334  HH2       33.4700   40.9300   32.8100  HH2    2  TRP        0.000000
    335  C         29.2500   40.0300   27.7100    C    2  TRP        0.000000
    336  O         29.0900   41.2000   27.4100    O    2  TRP        0.000000
    337  N         29.1700   31.9500   25.2600    N    3  TRP        0.000000
    338  H1        28.4700   32.3300   24.5900   H1    3  TRP        0.000000
    339  H2        29.4100   30.9800   24.9700   H2    3  TRP        0.000000
    340  H3        30.0300   32.5300   25.1900   H3    3  TRP        0.000000
    341  CA        28.6100   31.9400   26.6800   CA    3  TRP        0.000000
    342  HA        27.7300   31.2900   26.7400   HA    3  TRP        0.000000
    343  CB        29.6700   31.3400   27.7100   CB    3  TRP        0.000000
    344  HB1       29.8900   30.3200   27.3700  HB1    3  TRP        0.000000
    345  HB2       30.5900   31.9600   27.6900  HB2    3  TRP        0.000000
    346  CG        29.1500   31.2800   29.1900   CG    3  TRP        0.000000
    347  CD1       28.1300   30.5300   29.6800  CD1    3  TRP        0.000000
    348  HD1       27.5200   29.8800   29.1300  HD1    3  TRP        0.000000
    349  NE1       27.9900   30.7700   31.1000  NE1    3  TRP        0.000000
    350  HE1       27.3500   30.2800   31.7500  HE1    3  TRP        0.000000
    351  CE2       28.9600   31.6800   31.4700  CE2    3  TRP        0.000000
    352  CD2       29.7100   32.0200   30.3300  CD2    3  TRP        0.000000
    353  CE3       30.7300   32.8700   30.3800  CE3    3  TRP        0.000000
    354  HE3       31.3000   33.1100   29.5100  HE3    3  TRP        0.000000
    355  CZ3       31.0600   33.4700   31.6900  CZ3    3  TRP        0.000000
    356  HZ3       31.8600   34.1600   31.7700  HZ3    3  TRP        0.000000
    357  CZ2       29.2200   32.1900   32.6600  CZ2    3  TRP        0.000000
    358  HZ2       28.6500   31.9100   33.5100  HZ2    3  TRP        0.000000
    359  CH2       30.3400   33.1500   32.7700  CH2    3  TRP        0.000000
    360  HH2       30.5900   33.5900   33.7100  HH2    3  TRP        0.000000
    361  C         28.1900   33.3800   27.1400    C    3  TRP        0.000000
    362  O         28.4800   34.3600   26.4300    O    3  TRP        0.000000
    363  N         25.1400   48.0100   28.3700    N    4  TRP        0.000000
    364  H1        24.1000   48.0100   28.3700   H1    4  TRP        0.000000
    365  H2        25.4700   47.6200   27.4700   H2    4  TRP        0.000000
    366  H3        25.4900   48.9800   28.4700   H3    4  TRP        0.000000
    367  CA        25.6500   47.1500   29.5100   CA    4  TRP        0.000000
    368  HA        26.7500   47.1400   29.5200   HA    4  TRP        0.000000
    369  CB        25.1900   47.7200   30.9200   CB    4  TRP        0.000000
    370  HB1       25.6200   48.7300   31.0000  HB1    4  TRP        0.000000
    371  HB2       24.0900   47.7700   30.9500  HB2    4  TRP        0.000000
    372  CG        25.6900   46.8700   32.1300   CG    4  TRP        0.000000
    373  CD1       26.9500   46.5200   32.4800  CD1    4  TRP        0.000000
    374  HD1       27.8400   46.7900   31.9500  HD1    4  TRP        0.000000
    375  NE1       26.9200   45.7300   33.6900  NE1    4  TRP        0.000000
    376  HE1       27.7400   45.3600   34.2100  HE1    4  TRP        0.000000
    377  CE2       25.6000   45.6300   34.0800  CE2    4  TRP        0.000000
    378  CD2       24.8100   46.3100   33.1500  CD2    4  TRP        0.000000
    379  CE3       23.4900   46.3900   33.2800  CE3    4  TRP        0.000000
    380  HE3       22.8900   46.9100   32.5900  HE3    4  TRP        0.000000
    381  CZ3       22.8700   45.7300   34.4500  CZ3    4  TRP        0.000000
    382  HZ3       21.8200   45.7800   34.5800  HZ3    4  TRP        0.000000
    383  CZ2       25.0900   45.0300   35.1400  CZ2    4  TRP        0.000000
    384  HZ2       25.7200   44.5200   35.8200  HZ2    4  TRP        0.000000
    385  CH2       23.6300   45.0700   35.3300  CH2    4  TRP        0.000000
    386  HH2       23.1800   44.5900   36.1800  HH2    4  TRP        0.000000
    387  C         25.1500   45.7200   29.2800    C    4  TRP        0.000000
    388  O         24.4800   45.4900   28.2800    O    4  TRP        0.000000
    389  N         14.2700   41.2500   27.5800    N    5  TRP        0.000000
    390  H1        15.0700   41.5600   26.9900   H1    5  TRP        0.000000
    391  H2        13.5200   41.9600   27.5300   H2    5  TRP        0.000000
    392  H3        13.9300   40.3500   27.2100   H3    5  TRP        0.000000
    393  CA        14.7500   41.0600   28.9800   CA    5  TRP        0.000000
    394  HA        15.1400   42.0000   29.4000   HA    5  TRP        0.000000
    395  CB        13.5700   40.5700   29.9200   CB    5  TRP        0.000000
    396  HB1       12.8000   41.3700   29.9000  HB1    5  TRP        0.000000
    397  HB2       13.1200   39.6400   29.5400  HB2    5  TRP        0.000000
    398  CG        13.9500   40.3600   31.4300   CG    5  TRP        0.000000
    399  CD1       14.7200   41.1300   32.2300  CD1    5  TRP        0.000000
    400  HD1       15.2100   42.0300   31.9300  HD1    5  TRP        0.000000
    401  NE1       14.7800   40.5600   33.5600  NE1    5  TRP        0.000000
    402  HE1       15.2200   40.9900   34.4000  HE1    5  TRP        0.000000
    403  CE2       13.9800   39.4400   33.5700  CE2    5  TRP        0.000000
    404  CD2       13.4400   39.2600   32.2900  CD2    5  TRP        0.000000
    405  CE3       12.6100   38.2700   32.0000  CE3    5  TRP        0.000000
    406  HE3       12.1900   38.1500   31.0300  HE3    5  TRP        0.000000
    407  CZ3       12.2600   37.3300   33.0900  CZ3    5  TRP        0.000000
    408  HZ3       11.5900   36.5200   32.9000  HZ3    5  TRP        0.000000
    409  CZ2       13.6900   38.6200   34.5800  CZ2    5  TRP        0.000000
    410  HZ2       14.1100   38.7700   35.5500  HZ2    5  TRP        0.000000
    411  CH2       12.7700   37.4900   34.3100  CH2    5  TRP        0.000000
    412  HH2       12.5200   36.8200   35.0900  HH2    5  TRP        0.000000
    413  C         15.8500   40.0400   28.9000    C    5  TRP        0.000000
    414  O         15.9300   39.3700   27.8700    O    5  TRP        0.000000
    415  N         15.5500   29.0800   27.7500    N    6  TRP        0.000000
    416  H1        15.3000   30.0400   27.4500   H1    6  TRP        0.000000
    417  H2        14.7000   28.4800   27.7600   H2    6  TRP        0.000000
    418  H3        16.2400   28.6900   27.0800   H3    6  TRP        0.000000
    419  CA        16.1800   29.1300   29.1200   CA    6  TRP        0.000000
    420  HA        15.4900   29.5500   29.8600   HA    6  TRP        0.000000
    421  CB        16.6000   27.6800   29.6100   CB    6  TRP        0.000000
    422  HB1       15.8500   26.9700   29.2400  HB1    6  TRP        0.000000
    423  HB2       17.6000   27.4600   29.2100  HB2    6  TRP        0.000000
    424  CG        16.6500   27.6000   31.1700   CG    6  TRP        0.000000
    425  CD1       15.6000   27.4500   32.0000  CD1    6  TRP        0.000000
    426  HD1       14.5800   27.3600   31.7000  HD1    6  TRP        0.000000
    427  NE1       16.0500   27.4300   33.3500  NE1    6  TRP        0.000000
    428  HE1       15.4700   27.2700   34.1800  HE1    6  TRP        0.000000
    429  CE2       17.4300   27.5500   33.3500  CE2    6  TRP        0.000000
    430  CD2       17.8600   27.6500   32.0200  CD2    6  TRP        0.000000
    431  CE3       19.1500   27.7400   31.7000  CE3    6  TRP        0.000000
    432  HE3       19.4800   27.8000   30.6900  HE3    6  TRP        0.000000
    433  CZ3       20.1400   27.7600   32.8100  CZ3    6  TRP        0.000000
    434  HZ3       21.1800   27.8400   32.6000  HZ3    6  TRP        0.000000
    435  CZ2       18.2700   27.5700   34.3800  CZ2    6  TRP        0.000000
    436  HZ2       17.9200   27.4900   35.3700  HZ2    6  TRP        0.000000
    437  CH2       19.7200   27.6800   34.0800  CH2    6  TRP        0.000000
    438  HH2       20.4200   27.6900   34.8800  HH2    6  TRP        0.000000
    439  C         17.4100   30.0000   28.9800    C    6  TRP        0.000000
    440  O         17.8500   30.1300   27.8400    O    6  TRP        0.000000

@<TRIPOS>SUBSTRUCTURE
1 ****        1 TEMP                        0 ****  **** 0 ROOT
